CODE_RETURN = 13
CODE_ESC = 27
CODE_BACKSPACE = 8
CODE_TAB = 9
CODE_SPACE = asc(" ")

CODE_EXCLAIM = asc("!")
CODE_QUOTEDBL = 34
CODE_HASH = asc("#")
CODE_PERCENT = asc("%")
CODE_DOLLAR = asc("$")
CODE_AMPERSAND = asc("&")
CODE_QUOTE = asc("'")
CODE_LEFTPAREN = asc("(")
CODE_RIGHTPAREN = asc(")")
CODE_ASTERISK = asc("*")
CODE_PLUS = asc("+")
CODE_COMMA = asc(",")
CODE_MINUS = asc("-")
CODE_PERIOD = asc(".")
CODE_SLASH = asc("/")

CODE_0 = asc("0")
CODE_1 = asc("1")
CODE_2 = asc("2")
CODE_3 = asc("3")
CODE_4 = asc("4")
CODE_5 = asc("5")
CODE_6 = asc("6")
CODE_7 = asc("7")
CODE_8 = asc("8")
CODE_9 = asc("9")

CODE_COLON = asc(":")
CODE_SEMICOLON = asc(";")
CODE_LESS = asc("<")
CODE_EQUALS = asc("=")
CODE_GREATER = asc(">")
CODE_QUESTION = asc("?")
CODE_AT = asc("@")
CODE_LEFTBRACKET = asc("[")
CODE_BACKSLASH = asc("\")
CODE_RIGHTBRACKET = asc("]")
CODE_CARET = asc("^")
CODE_UNDERSCORE = asc("_")
CODE_BACKQUOTE = asc("`")

CODE_A = asc("a")
CODE_B = asc("b")
CODE_C = asc("c")
CODE_D = asc("d")
CODE_E = asc("e")
CODE_F = asc("f")
CODE_G = asc("g")
CODE_H = asc("h")
CODE_I = asc("i")
CODE_J = asc("j")
CODE_K = asc("k")
CODE_L = asc("l")
CODE_M = asc("m")
CODE_N = asc("n")
CODE_O = asc("o")
CODE_P = asc("p")
CODE_Q = asc("q")
CODE_R = asc("r")
CODE_S = asc("s")
CODE_T = asc("t")
CODE_U = asc("u")
CODE_V = asc("v")
CODE_W = asc("w")
CODE_X = asc("x")
CODE_Y = asc("y")
CODE_Z = asc("z")

CODE_F1 = bor(58, shl(1, 30))
CODE_F2 = bor(59, shl(1, 30))
CODE_F3 = bor(60, shl(1, 30))
CODE_F4 = bor(61, shl(1, 30))
CODE_F5 = bor(62, shl(1, 30))
CODE_F6 = bor(63, shl(1, 30))
CODE_F7 = bor(64, shl(1, 30))
CODE_F8 = bor(65, shl(1, 30))
CODE_F9 = bor(66, shl(1, 30))
CODE_F10 = bor(67, shl(1, 30))
CODE_F11 = bor(68, shl(1, 30))
CODE_F12 = bor(69, shl(1, 30))

CODE_INSERT = bor(73, shl(1, 30))
CODE_HOME = bor(74, shl(1, 30))
CODE_PAGEUP = bor(75, shl(1, 30))
CODE_DELETE = 127
CODE_END = bor(77, shl(1, 30))
CODE_PAGEDOWN = bor(78, shl(1, 30))
CODE_RIGHT = bor(79, shl(1, 30))
CODE_LEFT = bor(80, shl(1, 30))
CODE_DOWN = bor(81, shl(1, 30))
CODE_UP = bor(82, shl(1, 30))

CODE_NUMLOCKCLEAR = bor(83, shl(1, 30))
CODE_KP_DIVIDE = bor(84, shl(1, 30))
CODE_KP_MULTIPLY = bor(85, shl(1, 30))
CODE_KP_MINUS = bor(86, shl(1, 30))
CODE_KP_PLUS = bor(87, shl(1, 30))
CODE_KP_ENTER = bor(88, shl(1, 30))
CODE_KP_1 = bor(89, shl(1, 30))
CODE_KP_2 = bor(90, shl(1, 30))
CODE_KP_3 = bor(91, shl(1, 30))
CODE_KP_4 = bor(92, shl(1, 30))
CODE_KP_5 = bor(93, shl(1, 30))
CODE_KP_6 = bor(94, shl(1, 30))
CODE_KP_7 = bor(95, shl(1, 30))
CODE_KP_8 = bor(96, shl(1, 30))
CODE_KP_9 = bor(97, shl(1, 30))
CODE_KP_0 = bor(98, shl(1, 30))
CODE_KP_PERIOD = bor(99, shl(1, 30))

CODE_LCTRL = bor(224, shl(1, 30))
CODE_LSHIFT = bor(225, shl(1, 30))
CODE_LALT = bor(226, shl(1, 30))
CODE_LGUI = bor(227, shl(1, 30))
CODE_RCTRL = bor(228, shl(1, 30))
CODE_RSHIFT = bor(229, shl(1, 30))
CODE_RALT = bor(230, shl(1, 30))
CODE_RGUI = bor(231, shl(1, 30))